<?xml version="1.0" encoding="UTF-8"?>

<!-- generated on 2024-05-25 19:19:52 by Eclipse SUMO netedit Version 1.17.0
<configuration xmlns:xsi="http://www.w3.org/2001/XMLSchema-instance" xsi:noNamespaceSchemaLocation="http://sumo.dlr.de/xsd/netconvertConfiguration.xsd">

    <input>
        <sumo-net-file value="/home/olga/Documents/homework/test.net.xml"/>
    </input>

    <processing>
        <geometry.min-radius.fix.railways value="false"/>
        <geometry.max-grade.fix value="false"/>
        <offset.disable-normalization value="true"/>
        <lefthand value="0"/>
    </processing>

    <junctions>
        <no-turnarounds value="true"/>
        <junctions.corner-detail value="5"/>
        <junctions.limit-turn-speed value="5.50"/>
        <rectangular-lane-cut value="0"/>
    </junctions>

    <pedestrian>
        <walkingareas value="0"/>
    </pedestrian>

</configuration>
-->

<connections version="1.16" xmlns:xsi="http://www.w3.org/2001/XMLSchema-instance" xsi:noNamespaceSchemaLocation="http://sumo.dlr.de/xsd/connections_file.xsd">
    <connection from="I42_E_in" to="I42_W_out" fromLane="0" toLane="0"/>
    <connection from="I42_E_in" to="I42_W_out" fromLane="1" toLane="1"/>
    <connection from="I42_E_in" to="I42_W_out" fromLane="2" toLane="2"/>
    <connection from="I42_E_in" to="I42_S_out" fromLane="3" toLane="1" contPos="0.00"/>

    <connection from="I42_E_out" to="I43_W_in" fromLane="0" toLane="0"/>
    <connection from="I42_E_out" to="I43_W_in" fromLane="1" toLane="1"/>
    <connection from="I42_E_out" to="I43_W_in" fromLane="1" toLane="2"/>
    <connection from="I42_E_out" to="I43_W_in" fromLane="1" toLane="3"/>

    <connection from="I42_N_in" to="I42_W_out" fromLane="0" toLane="1" contPos="4.00" uncontrolled="1"/>
    <connection from="I42_N_in" to="I42_S_out" fromLane="1" toLane="0"/>
    <connection from="I42_N_in" to="I42_S_out" fromLane="2" toLane="1"/>
    <connection from="I42_N_in" to="I42_E_out" fromLane="3" toLane="0" contPos="0.00"/>
    <connection from="I42_N_in" to="I42_E_out" fromLane="4" toLane="1" contPos="0.00"/>

    <connection from="I42_N_zip_in" to="I42_N_in" fromLane="1" toLane="0"/>
    <connection from="I42_N_zip_in" to="I42_N_in" fromLane="2" toLane="1"/>

    <connection from="I42_W_in" to="I42_S_out" fromLane="0" toLane="0" contPos="4.00" uncontrolled="1"/>
    <connection from="I42_W_in" to="I42_E_out" fromLane="1" toLane="0"/>
    <connection from="I42_W_in" to="I42_E_out" fromLane="2" toLane="1"/>

    <connection from="I42_W_out"/>

    <connection from="I42_W_zip_in" to="I42_W_in" fromLane="1" toLane="0"/>
    <connection from="I42_W_zip_in" to="I42_W_in" fromLane="1" toLane="1"/>
    <connection from="I42_W_zip_in" to="I42_W_in" fromLane="2" toLane="2"/>

    <connection from="I43_E_in" to="I43_N_out" fromLane="0" toLane="0" contPos="4.00" uncontrolled="1"/>
    <connection from="I43_E_in" to="I43_W_out" fromLane="1" toLane="0"/>
    <connection from="I43_E_in" to="I43_W_out" fromLane="2" toLane="1"/>
    <connection from="I43_E_in" to="I43_W_out" fromLane="3" toLane="2"/>

    <connection from="I43_E_out"/>

    <connection from="I43_E_zip_in" to="I43_E_in" fromLane="1" toLane="0"/>
    <connection from="I43_E_zip_in" to="I43_E_in" fromLane="1" toLane="1"/>
    <connection from="I43_E_zip_in" to="I43_E_in" fromLane="2" toLane="2"/>
    <connection from="I43_E_zip_in" to="I43_E_in" fromLane="3" toLane="3"/>

    <connection from="I43_S_in" to="I43_E_out" fromLane="0" toLane="1" contPos="4.00" uncontrolled="1"/>
    <connection from="I43_S_in" to="I43_N_out" fromLane="1" toLane="0"/>
    <connection from="I43_S_in" to="I43_N_out" fromLane="2" toLane="1"/>
    <connection from="I43_S_in" to="I43_W_out" fromLane="3" toLane="1" contPos="0.00"/>
    <connection from="I43_S_in" to="I43_W_out" fromLane="4" toLane="2" contPos="0.00"/>

    <connection from="I43_S_zip_in" to="I43_S_in" fromLane="1" toLane="0"/>
    <connection from="I43_S_zip_in" to="I43_S_in" fromLane="2" toLane="1"/>

    <connection from="I43_W_in" to="I43_E_out" fromLane="0" toLane="0"/>
    <connection from="I43_W_in" to="I43_E_out" fromLane="1" toLane="1"/>
    <connection from="I43_W_in" to="I43_E_out" fromLane="2" toLane="2"/>
    <connection from="I43_W_in" to="I43_N_out" fromLane="3" toLane="1" contPos="0.00"/>
    <connection from="I43_W_in" to="I43_W_out" fromLane="3" toLane="2" contPos="4.00"/>

    <connection from="I43_W_out" to="I42_E_in" fromLane="0" toLane="0"/>
    <connection from="I43_W_out" to="I42_E_in" fromLane="1" toLane="1"/>
    <connection from="I43_W_out" to="I42_E_in" fromLane="2" toLane="2"/>
    <connection from="I43_W_out" to="I42_E_in" fromLane="2" toLane="3"/>

</connections>
