<?xml version="1.0" encoding="UTF-8"?>
<edges xmlns:xsi="http://www.w3.org/2001/XMLSchema-instance">
    <edge id="I42_E_in" from="PR_43_42_" to="I42" numLanes="4" speed="13.89">
	    <lane index="0" allow="all" width="1.8"/>
	    <lane index="1" allow="all"/>
	    <lane index="2" allow="all"/>
	    <lane index="3" allow="all"/>
    </edge>
    <edge id="I42_E_out" from="I42" to="PR_42_43_" numLanes="2" speed="13.89">
	    <lane index="0" allow="all"/>
	    <lane index="1" allow="all"/>
    </edge>
    <edge id="I42_S_out" from="I42" to="MI_DE_42_S_" numLanes="2" speed="13.89">
	    <lane index="0" allow="all"/>
	    <lane index="1" allow="all"/>
    </edge>
    <edge id="I42_N_zip_in" from="MI_DE_42_N_" to="I42_N_zip" numLanes="5" speed="13.89">
	    <lane index="0" disallow="all"/>
	    <lane index="1" allow="all"/>
	    <lane index="2" allow="all"/>
	    <lane index="3" disallow="all"/>
	    <lane index="4" disallow="all"/>
    </edge>
    <edge id="I42_N_in" from="I42_N_zip" to="I42" numLanes="5" speed="13.89">
	    <lane index="0" allow="all"/>
	    <lane index="1" allow="all"/>
	    <lane index="2" allow="all"/>
	    <lane index="3" allow="all"/>
	    <lane index="4" allow="all"/>
    </edge>
    <edge id="I42_W_zip_in" from="MI_DE_42_W_" to="I42_W_zip" numLanes="3" speed="13.89">
	    <lane index="0" disallow="all"/>
	    <lane index="1" allow="all"/>
	    <lane index="2" allow="all"/>
    </edge>
    <edge id="I42_W_in" from="I42_W_zip" to="I42" numLanes="3" speed="13.89">
	    <lane index="0" allow="all"/>
	    <lane index="1" allow="all"/>
	    <lane index="2" allow="all"/>
    </edge>
    <edge id="I42_W_out" from="I42" to="MI_DE_42_W_" numLanes="3" speed="13.89">
	    <lane index="0" allow="bicycle" width="1.8"/>
	    <lane index="1" allow="all"/>
	    <lane index="2" allow="all"/>
    </edge>
    <edge id="I43_N_out" from="I43" to="MI_DE_43_N_" numLanes="2" speed="13.89">
	    <lane index="0" allow="all"/>
	    <lane index="1" allow="all"/>
    </edge>
    <edge id="I43_E_zip_in" from="MI_DE_43_E_" to="I43_E_zip" numLanes="4" speed="13.89">
	    <lane index="0" disallow="all"/>
	    <lane index="1" allow="all"/>
	    <lane index="2" allow="all"/>
	    <lane index="3" allow="all"/>
    </edge>
    <edge id="I43_E_in" from="I43_E_zip" to="I43" numLanes="4" speed="13.89">
	    <lane index="0" allow="all"/>
	    <lane index="1" allow="all"/>
	    <lane index="2" allow="all"/>
	    <lane index="3" allow="all"/>
    </edge>
    <edge id="I43_E_out" from="I43" to="MI_DE_43_E_" numLanes="3" speed="13.89">
	    <lane index="0" allow="bicycle" width="1.8"/>
	    <lane index="1" allow="all"/>
	    <lane index="2" allow="all"/>
    </edge>
    <edge id="I43_S_zip_in" from="MI_DE_43_S_" to="I43_S_zip" numLanes="5" speed="13.89">
	    <lane index="0" disallow="all"/>
	    <lane index="1" allow="all"/>
	    <lane index="2" allow="all"/>
	    <lane index="3" disallow="all"/>
	    <lane index="4" disallow="all"/>
    </edge>
    <edge id="I43_S_in" from="I43_S_zip" to="I43" numLanes="5" speed="13.89">
	    <lane index="0" allow="all"/>
	    <lane index="1" allow="all"/>
	    <lane index="2" allow="all"/>
	    <lane index="3" allow="all"/>
	    <lane index="4" allow="all"/>
    </edge>
    <edge id="I43_W_in" from="PR_42_43_" to="I43" numLanes="4" speed="13.89">
	    <lane index="0" allow="all" width="1.8"/>
	    <lane index="1" allow="all"/>
	    <lane index="2" allow="all"/>
	    <lane index="3" allow="all"/>
    </edge>
    <edge id="I43_W_out" from="I43" to="PR_43_42_" numLanes="3" speed="13.89">
	    <lane index="0" allow="all"/>
	    <lane index="1" allow="all"/>
	    <lane index="2" allow="all"/>
    </edge>
</edges>